#######################################################################
#
#                 Cambridge Crystallographic Data Centre
#                                 CCDC 
#
#######################################################################
#
# If this CIF has been generated from an entry in the Cambridge 
# Structural Database, then it will include bibliographic, chemical, 
# crystal, experimental, refinement or atomic coordinate data resulting 
# from the CCDC's data processing and validation procedures.
#
#######################################################################

data_CIMYUW
_symmetry_cell_setting           orthorhombic
_symmetry_space_group_name_H-M   'P c a 21'
_symmetry_Int_Tables_number      29
_space_group_name_Hall           'P 2c -2ac'
loop_
_symmetry_equiv_pos_site_id
_symmetry_equiv_pos_as_xyz
1 x,y,z
2 -x,-y,1/2+z
3 1/2-x,y,1/2+z
4 1/2+x,-y,z
_cell_length_a                   8.3945(3)
_cell_length_b                   36.8239(15)
_cell_length_c                   8.2679(3)
_cell_angle_alpha                90
_cell_angle_beta                 90
_cell_angle_gamma                90
_cell_volume                     2555.76
loop_
_atom_site_label
_atom_site_type_symbol
_atom_site_fract_x
_atom_site_fract_y
_atom_site_fract_z
_atom_site_U_iso_or_equiv
_atom_site_thermal_displace_type
Pb1 Pb 0.49921(4) 0.16576(2) 0.48218(8) 0.0345 Uani
Pb2 Pb 0.49223(5) 0.33237(2) 0.48966(7) 0.0340 Uani
Br3 Br 0.53498(19) 0.41233(4) 0.4665(4) 0.0632 Uani
Br4 Br 0.49767(17) 0.25080(3) 0.4733(8) 0.0657 Uani
Br5 Br 0.7453(3) 0.17433(5) 0.2256(4) 0.0796 Uani
Br7 Br 0.79490(15) 0.32812(4) 0.2872(4) 0.0533 Uani
Br8 Br 0.5618(2) 0.08940(5) 0.4824(5) 0.0951 Uani
Br10 Br 0.2480(3) 0.15683(5) 0.2336(4) 0.0825 Uani
Br1 Br 0.31069(17) 0.33276(5) 0.1806(4) 0.0703 Uani
Pb3 Pb 0.00079(4) 0.16576(2) -0.01782(8) 0.0345 Uani
Pb4 Pb 1.00079(4) 0.16576(2) -0.01782(8) 0.0345 Uani
Pb5 Pb 0.00777(5) 0.33237(2) -0.01034(7) 0.0340 Uani
Pb6 Pb 1.00777(5) 0.33237(2) -0.01034(7) 0.0340 Uani
Br9 Br 0.7547(3) 0.17433(5) 0.7256(4) 0.0796 Uani
Br11 Br 0.70510(15) 0.32812(4) 0.7872(4) 0.0533 Uani
Br12 Br 0.2520(3) 0.15683(5) 0.7336(4) 0.0825 Uani
Br13 Br 0.18931(17) 0.33276(5) 0.6806(4) 0.0703 Uani
N3 N 0.5721(15) 0.3963(4) 0.0518(15) 0.0717 Uani
H3A H 0.664275 0.392204 0.001854 0.0860 Uiso
H3B H 0.524266 0.375295 0.072711 0.0860 Uiso
H3C H 0.590188 0.408079 0.144132 0.0860 Uiso
C6 C 0.481(3) 0.4588(6) -0.006(5) 0.1667 Uani
H6A H 0.449604 0.461861 0.106553 0.2010 Uiso
H6B H 0.590500 0.466964 -0.016695 0.2010 Uiso
C5 C 0.468(3) 0.4188(6) -0.054(3) 0.1270 Uani
H5A H 0.358410 0.410837 -0.043405 0.1530 Uiso
H5B H 0.499863 0.415880 -0.165821 0.1530 Uiso
C7 C 0.373(3) 0.4813(7) -0.115(4) 0.2113 Uani
H7A H 0.427579 0.486718 -0.213649 0.3170 Uiso
H7B H 0.345357 0.503539 -0.060777 0.3170 Uiso
H7C H 0.277856 0.467811 -0.137807 0.3170 Uiso
N2 N 0.5350(15) 0.1084(4) -0.017(3) 0.0973 Uani
H2A H 0.489153 0.125695 -0.076021 0.1170 Uiso
H2B H 0.637139 0.106474 -0.044464 0.1170 Uiso
H2C H 0.527808 0.114171 0.087457 0.1170 Uiso
C3 C 0.460(4) 0.0405(7) 0.037(4) 0.1913 Uani
H3D H 0.429030 0.043757 0.149454 0.2290 Uiso
H3E H 0.567838 0.030798 0.035864 0.2290 Uiso
C2 C 0.457(4) 0.0751(7) -0.045(5) 0.1887 Uani
H2D H 0.484932 0.069145 -0.155378 0.2270 Uiso
H2E H 0.345374 0.081482 -0.046959 0.2270 Uiso
C4 C 0.352(4) 0.0151(8) -0.041(6) 0.2867 Uani
H4A H 0.413062 -0.002577 -0.100029 0.4250 Uiso
H4B H 0.284334 0.028098 -0.114288 0.4250 Uiso
H4C H 0.288865 0.003143 0.039260 0.4250 Uiso
N1 N 0.452(3) 0.2435(5) -0.043(4) 0.1710 Uani
H1A H 0.431759 0.259070 -0.122983 0.2050 Uiso
H1B H 0.368037 0.241840 0.021327 0.2050 Uiso
H1C H 0.474039 0.221757 -0.085049 0.2050 Uiso
C1 C 0.583(2) 0.2557(4) 0.045(2) 0.0787 Uani
H1D H 0.675420 0.241860 0.015627 0.1180 Uiso
H1E H 0.562111 0.252762 0.158313 0.1180 Uiso
H1F H 0.601168 0.280899 0.021658 0.1180 Uiso
loop_
_atom_site_aniso_label
_atom_site_aniso_U_11
_atom_site_aniso_U_22
_atom_site_aniso_U_33
_atom_site_aniso_U_23
_atom_site_aniso_U_13
_atom_site_aniso_U_12
Pb1 0.0267(2) 0.0461(3) 0.0308(3) 0.0019(4) -0.00020(17) -0.00017(17)
Pb2 0.0289(2) 0.0424(3) 0.0308(3) -0.0006(4) 0.0004(3) 0.00135(17)
Br3 0.0686(9) 0.0462(8) 0.0747(11) -0.0018(10) -0.0020(10) 0.0048(7)
Br4 0.0713(11) 0.0433(9) 0.0826(19) 0.0010(9) 0.0033(9) 0.0019(8)
Br5 0.0636(9) 0.1094(13) 0.0657(10) 0.0071(12) 0.0379(8) 0.0062(12)
Br7 0.0449(8) 0.0707(10) 0.0442(7) 0.0032(7) 0.0150(5) 0.0041(7)
Br8 0.0660(10) 0.0432(9) 0.176(2) 0.0001(16) 0.0060(19) 0.0017(7)
Br10 0.0584(8) 0.1326(15) 0.0564(9) 0.0011(12) -0.0312(7) -0.0027(12)
Br1 0.0563(9) 0.0956(14) 0.0590(9) 0.0134(9) -0.0292(7) -0.0149(8)
Pb3 0.0267 0.0461 0.0308 0.0019 0.0002 0.00017
Pb4 0.0267 0.0461 0.0308 0.0019 0.0002 0.00017
Pb5 0.0289 0.0424 0.0308 -0.0006 -0.0004 -0.00135
Pb6 0.0289 0.0424 0.0308 -0.0006 -0.0004 -0.00135
Br9 0.0636 0.1094 0.0657 0.0071 -0.0379 -0.0062
Br11 0.0449 0.0707 0.0442 0.0032 -0.015 -0.0041
Br12 0.0584 0.1326 0.0564 0.0011 0.0312 0.0027
Br13 0.0563 0.0956 0.059 0.0134 0.0292 0.0149
N3 0.073(9) 0.067(9) 0.075(8) 0.017(7) 0.017(6) 0.010(7)
C6 0.17(2) 0.080(12) 0.25(3) 0.07(2) -0.02(2) 0.018(15)
C5 0.152(19) 0.109(14) 0.12(2) 0.021(16) -0.018(15) 0.037(15)
C7 0.19(3) 0.114(19) 0.33(4) 0.07(2) -0.05(3) 0.04(2)
N2 0.067(8) 0.084(10) 0.141(13) -0.006(14) -0.020(11) 0.003(7)
C3 0.23(3) 0.094(15) 0.25(4) -0.02(2) 0.00(3) -0.002(19)
C2 0.23(3) 0.096(16) 0.24(3) -0.02(2) -0.07(3) -0.031(19)
C4 0.21(3) 0.12(2) 0.53(6) -0.01(4) -0.04(4) -0.06(2)
N1 0.133(16) 0.17(2) 0.21(3) -0.071(18) -0.06(2) -0.028(14)
C1 0.070(12) 0.070(14) 0.096(14) 0.017(10) -0.014(8) -0.005(9)
loop_
_geom_bond_atom_site_label_1
_geom_bond_atom_site_label_2
_geom_bond_site_symmetry_1
_geom_bond_site_symmetry_2
Pb1 Br4 1_555 1_555
Pb1 Br5 1_555 1_555
Pb1 Br8 1_555 1_555
Pb1 Br10 1_555 1_555
Pb1 Br9 1_555 1_555
Pb1 Br12 1_555 1_555
Pb2 Br3 1_555 1_555
Pb2 Br4 1_555 1_555
Pb2 Br7 1_555 1_555
Pb2 Br1 1_555 1_555
Pb2 Br11 1_555 1_555
Pb2 Br13 1_555 1_555
Br5 Pb4 1_555 1_555
Br7 Pb6 1_555 1_555
Br10 Pb3 1_555 1_555
Br1 Pb5 1_555 1_555
N3 H3A 1_555 1_555
N3 H3B 1_555 1_555
N3 H3C 1_555 1_555
N3 C5 1_555 1_555
C6 H6A 1_555 1_555
C6 H6B 1_555 1_555
C6 C5 1_555 1_555
C6 C7 1_555 1_555
C5 H5A 1_555 1_555
C5 H5B 1_555 1_555
C7 H7A 1_555 1_555
C7 H7B 1_555 1_555
C7 H7C 1_555 1_555
N2 H2A 1_555 1_555
N2 H2B 1_555 1_555
N2 H2C 1_555 1_555
N2 C2 1_555 1_555
C3 H3D 1_555 1_555
C3 H3E 1_555 1_555
C3 C2 1_555 1_555
C3 C4 1_555 1_555
C2 H2D 1_555 1_555
C2 H2E 1_555 1_555
C4 H4A 1_555 1_555
C4 H4B 1_555 1_555
C4 H4C 1_555 1_555
N1 H1A 1_555 1_555
N1 H1B 1_555 1_555
N1 H1C 1_555 1_555
N1 C1 1_555 1_555
C1 H1D 1_555 1_555
C1 H1E 1_555 1_555
C1 H1F 1_555 1_555